9
	Energy:       0.5508965
C         -1.47079        0.46681        0.21842
C         -2.18913       -0.86791        0.50207
O         -0.06972        0.31325        0.47454
H          0.39122        1.12724        0.30494
H         -1.77932       -1.65352       -0.15029
H         -3.26667       -0.75883        0.30739
H         -2.03652       -1.15297        1.55380
H         -1.62749        0.74997       -0.83401
H         -1.88443        1.25074        0.87166
