9
	Energy:      -1.5170928
C         -1.39715        0.52636        0.27981
C         -2.09719       -0.80060        0.48101
O         -0.02784        0.38423        0.62686
H          0.39299        1.24978        0.48813
H         -1.63635       -1.57770       -0.13774
H         -3.15717       -0.72607        0.22263
H         -2.00931       -1.12933        1.52184
H         -1.46485        0.84155       -0.76573
H         -1.84382        1.29642        0.91585
